/batch
/config,noeldb,1     ! force off writing results to database
*get,_wallstrt,active,,time,wall
! ANSYS input file written by Workbench version 2024 R1
! File used for geometry attach: C:\Users\sunil\OneDrive\Desktop\New folder\Sem 4\Microcantilever Geometry-1.STEP
/title,Engineering data--Static Structural (A5)
! ****** Begin Custom Load Command Snippet ******
/COM, ACT Extensions:
/COM,     LSDYNA, 2024.1
/COM,     5f463412-bd3e-484b-87e7-cbc0a665e474, wbex
/COM,/COM,     ANSYSMotion, 2024.1
/COM,     20180725-3f81-49eb-9f31-41364844c769, wbex
/COM,
! ****** End   Custom Load Command Snippet ******
*DIM,_wb_ProjectScratch_dir,string,248
_wb_ProjectScratch_dir(1) = 'C:\Users\sunil\OneDrive\Desktop\New folder\Sem 4\Ansys\_ProjectScratch\Scr6232\'
*DIM,_wb_SolverFiles_dir,string,248
_wb_SolverFiles_dir(1) = 'C:\Users\sunil\OneDrive\Desktop\New folder\Sem 4\Ansys\Engineering data_files\dp0\SYS\MECH\'
*DIM,_wb_userfiles_dir,string,248
_wb_userfiles_dir(1) = 'C:\Users\sunil\OneDrive\Desktop\New folder\Sem 4\Ansys\Engineering data_files\user_files\'
/com,--- Data in consistent MKS units. See Solving Units in the help system for more information.
/units,MKS
/nopr
/wb,file,start              !  signify a WB generated input file
/prep7
! Turn off shape checking because checks already performed inside WB mesher.
! See help system for more information.
SHPP,OFF,,NOWARN
/nolist
etcon,set             ! allow ANSYS to choose best KEYOP's for 180x elements, resets any applicable keyopt to MAPDL defaults
/com,*********** Nodes for the whole assembly ***********
nblock,3,,5267
(1i9,3e20.9e3)
        1     1.750000000E-02    -2.000000000E-03     5.000000000E-02
        2     1.750000000E-02    -2.000000000E-03     1.000000000E-02
        3     1.750000000E-02    -2.000000000E-03     3.000000000E-02
        4     6.175000000E-01    -2.000000000E-03     1.000000000E-02
        5     6.175000000E-01    -2.000000000E-03     5.000000000E-02
        6     2.610292938E-02    -2.000000000E-03     2.318111794E-02
        7     6.088970706E-01    -2.000000000E-03     2.318111794E-02
        8     6.088970706E-01    -2.000000000E-03     1.408927520E-02
        9     2.610292938E-02    -2.000000000E-03     1.408927520E-02
       10     6.088970706E-01    -2.000000000E-03     3.681888206E-02
       11     6.088970706E-01    -2.000000000E-03     4.591072480E-02
       12     2.610292938E-02    -2.000000000E-03     3.681888206E-02
       13     2.610292938E-02    -2.000000000E-03     4.591072480E-02
       14     1.750000000E-02     1.750000000E-02     0.000000000E+00
       15     1.750000000E-02    -1.750000000E-02     0.000000000E+00
       16     1.750000000E-02     1.750000000E-02     6.000000000E-02
       17     1.750000000E-02    -1.750000000E-02     6.000000000E-02
       18     1.750000000E-02     2.000000000E-03     1.000000000E-02
       19     1.750000000E-02     2.000000000E-03     5.000000000E-02
       20    -1.750000000E-02    -1.750000000E-02     0.000000000E+00
! ... 4770 like lines cut
/wb,elem,start            !  set before creation of elements
/com,*********** Elements for Body 1 "Microcantilever Geometry-1-FreeParts|Mirror1" ***********
et,1,187
eblock,19,solid,,2307
(19i9)
        1        1        1        1        0        0        0        0       10        0        1      340      498      495      830     3232     3894     3230     3236
     3906     3898
        1        1        1        1        0        0        0        0       10        0        2       30      830      495      498     1090     3898     1086     1087
     3906     3894
        1        1        1        1        0        0        0        0       10        0        3       30      830      624      495     1090     4350     1089     1086
     3898     3896
        1        1        1        1        0        0        0        0       10        0        4      340      498      830      585     3232     3906     3236     3234
     3905     4203
        1        1        1        1        0        0        0        0       10        0        5        6      830      340      829      894     3236      889      893
     4789     3235
        1        1        1        1        0        0        0        0       10        0        6       30      830      498      585     1090     3906     1087     1088
     4203     3905
        1        1        1        1        0        0        0        0       10        0        7        6      585      340      830      892     3234      889      894
     4203     3236
        1        1        1        1        0        0        0        0       10        0        8        6        9      830      829      882      931      894      893
      930     4789
        1        1        1        1        0        0        0        0       10        0        9        9      624      830      829      926     4350      931      930
     4349     4789
        1        1        1        1        0        0        0        0       10        0       10        6      585      830       43      892     4203      894      885
     1136     1144
! ... 4595 like lines cut
!Material Id = {80B9DF9B-8873-4401-9771-E8ADF2E49BE0}
/wb,elem,end               !  done creating elements
/com,*********** Send User Defined Coordinate System(s) ***********
csys,0
toffst,273.15,  ! Temperature offset from absolute zero
/com,*********** Set Reference Temperature ***********
tref,22.
/wb,mat,start              !  starting to send materials
/com,*********** Send Materials ***********
Temperature = 'TEMP' ! Temperature
MP,DENS,1,7850,	! kg m^-3
MP,ALPX,1,1.2e-05,	! C^-1
MP,C,1,434,	! J kg^-1 C^-1
MP,KXX,1,60.5,	! W m^-1 C^-1
MP,RSVX,1,1.7e-07,	! kg m^3 A^-2 s^-3
MP,EX,1,200000000000,	! Pa
MP,NUXY,1,0.3,
MP,MURX,1,10000,
MP,UVID,1,61813878-3a85-4e0b-ab12-c7fe4c7e3e1f
MP,UMID,1,59002a79-71c2-428e-906b-55d7dbee100e

/wb,mat,end                !  done sending materials
!************************* Model Summary ********************
!Microcantilever Geometry-1-FreeParts|Mirror1,	SiC,	matid,	1
!************************* End Model Summary ********************
! get the diagonal of the bounding box. Needed later for other things
*get,_xmin,node,,mnloc,x
*get,_ymin,node,,mnloc,y
*get,_zmin,node,,mnloc,z
*get,_xmax,node,,mxloc,x
*get,_ymax,node,,mxloc,y
*get,_zmax,node,,mxloc,z
_ASMDIAG=(_xmax-_xmin)*(_xmax-_xmin)+(_ymax-_ymin)*(_ymax-_ymin)+(_zmax-_zmin)*(_zmax-_zmin)
_ASMDIAG=SQRT(_ASMDIAG)
/wb,contact,start          !  starting to send contact
/wb,contact,end            !  done creating contacts
/golist
/wb,load,start             !  starting to send loads
/com,*********** Fixed Supports ***********
CMBLOCK,_FIXEDSU,NODE,       35
(8i10)
        20        21        22        23       796       797       804       805
       806       807       808       809      1022      1023      1028      1029
      1030      1034      1035      1036      1040      1041      4703      4704
      4705      4707      4708      4736      4737      4738      4740      4741
      4744      4745      4751
cmsel,s,_FIXEDSU
d,all,all
nsel,all
/com,*********** Define Force Using Surface Effect Elements ***********
local,12,0,0.,0.,0.,0.,0.,0.
csys,0
et,2,154
mat,2
eblock,10,,,320
(15i9)
     3930        2        2        2       12      498      495       30       30     3894     1086       30     1087
     3931        2        2        2       12      498      340      495      495     3232     3230      495     3894
     3932        2        2        2       12      497      340      498      498     3231     3232      498     3901
     3933        2        2        2       12      497      379      340      340     3475     3228      340     3231
     3934        2        2        2       12      496      379      497      497     3474     3475      497     3899
     3935        2        2        2       12      496      418      379      379     3598     3473      379     3474
     3936        2        2        2       12       32      418      496      496     1094     3598      496     1095
     3937        2        2        2       12       32      537      418      418     1096     3599      418     1094
     3938        2        2        2       12      340      494      495      495     3229     3890      495     3230
     3939        2        2        2       12      340      341      494      494     3227     3241      494     3229
     3940        2        2        2       12      379      341      340      340     3238     3227      340     3228
     3941        2        2        2       12      379      380      341      341     3472     3239      341     3238
     3942        2        2        2       12      418      380      379      379     3480     3472      379     3473
     3943        2        2        2       12      418      419      380      380     3597     3481      380     3480
     3944        2        2        2       12      537      419      418      418     3605     3597      418     3599
     3945        2        2        2       12      537      536      419      419     4023     3604      419     3605
     3946        2        2        2       12      341      493      494      494     3240     3887      494     3241
     3947        2        2        2       12      341      342      493      493     3237     3247      493     3240
     3948        2        2        2       12      380      342      341      341     3244     3237      341     3239
     3949        2        2        2       12      380      381      342      342     3479     3245      342     3244
! ... 301 like lines cut
esel,s,type,,2
keyop,2,2,1                ! Apply load in local coordinate system
keyop,2,7,1                ! Use original area so load is constant in large deformation
esel,all
/gst,on,on
fini
*get,_numnode,node,0,count
*get,_numelem,elem,0,count
*get, _MAXELEMNUM, elem, 0, NUM, MAX
*get, _MAXNODENUM, node, 0, NUM, MAX
*get, _MAXELEMTYPE, etyp, 0, NUM, MAX
*get, _MAXREALCONST, rcon, 0, NUM, MAX
/go
/wb,load,end               !  done creating loads
/com,--- Number of total nodes = %_numnode%
/com,--- Number of contact elements = 320
/com,--- Number of spring elements = 0
/com,--- Number of bearing elements = 0
/com,--- Number of solid elements = 2307
/com,--- Number of condensed parts = 0
/com,--- Number of total elements = %_numelem%
*get,_wallbsol,active,,time,wall
/com,****************************************************************************
/com,*************************    SOLUTION       ********************************
/com,****************************************************************************
/solu
antype,0                   ! static analysis
_thickRatio=  0     ! Ratio of thick parts in the model
eqsl,sparse,,,,,1
cntr,print,1               ! print out contact info and also make no initial contact an error
cncheck,dmp		!	Enable program controlled contact splitting for distributed memory parallel run
dmpoption,emat,no             ! Don't combine emat file for DANSYS
dmpoption,esav,no             ! Don't combine esav file for DANSYS
nldiag,cont,iter           ! print out contact info each equilibrium iteration
rescontrol,,none                 ! Do not keep any restart files
/com,****************************************************
/com,******************* SOLVE FOR LS 1 OF 1 ****************
esel,s,type,,2
nsle
sfe,all,1,pres,1,0.
sfe,all,2,pres,1,-1.12994350282452
sfe,all,3,pres,1,0.
nsel,all
esel,all
/nopr
/gopr
nsub,1,1,1
time,1.
outres,erase
outres,all,none
outres,nsol,all,
outres,rsol,all
outres,eangl,all
outres,etmp,all
outres,veng,all
outres,strs,all,
outres,epel,all,
outres,eppl,all,
outres,cont,all,
! *********** WB SOLVE COMMAND ***********
! check interactive state
*get,ANSINTER_,active,,int
*if,ANSINTER_,ne,0,then
/eof
*endif
solve
/com *************** Write FE CONNECTORS ********* 
CEWRITE,file,ce,,INTE
/com,****************************************************
/com,*************** FINISHED SOLVE FOR LS 1 *************
*get,_wallasol,active,,time,wall
/nopr
*get,_numnode,node,0,count
*get,_numelem,elem,0,count
*get, _MAXELEMNUM, elem, 0, NUM, MAX
*get, _MAXNODENUM, node, 0, NUM, MAX,,,INTERNAL
*get, _MAXELEMTYPE, etyp, 0, NUM, MAX
*get, _MAXREALCONST, rcon, 0, NUM, MAX
*get,_NSOLTHREADS,active,0,ntfs
*get,_NSOLPROCESSES,active,0,npfs
/gopr
/post1
xmlo,ENCODING,ISO-8859-1
xmlo,parm
/xml,parm,xml
fini
/gopr
*get,_walldone,active,,time,wall
_preptime=(_wallbsol-_wallstrt)*3600
_solvtime=(_wallasol-_wallbsol)*3600
_posttime=(_walldone-_wallasol)*3600
_totaltim=(_walldone-_wallstrt)*3600
*get,_dlbratio,active,0,solu,dlbr
*get,_combtime,active,0,solu,comb
*get,_ssmode,active,0,solu,ssmm
*get,_ndofs,active,0,solu,ndof
*get,_sol_end_time,active,0,set,time
*if,_sol_end_time,eq,1.000000,then
/fclean				!clean distributed files
*endif
/com,--- Total number of nodes = %_numnode%
/com,--- Total number of elements = %_numelem%
/com,--- Element load balance ratio = %_dlbratio%
/com,--- Time to combine distributed files = %_combtime%
/com,--- Sparse memory mode = %_ssmode%
/com,--- Number of DOF = %_ndofs%
/wb,file,end               ! done with WB generated input
